Circuit: * C:\Users\samyb\Documents\CPE\Année 3\CEE\PROJET_CEE_BOBET_PISKIN_CHAVRET_BERTIER_BELALOUI_DEBOISDEFFRE\schémacomplet.asc

Direct Newton iteration for .op point succeeded.

Date: Thu Jun 30 11:56:19 2016
Total elapsed time: 24.713 seconds.

tnom = 27
temp = 27
method = modified trap
totiter = 628926
traniter = 628920
tranpoints = 163673
accept = 118306
rejected = 45367
matrix size = 41
fillins = 27
solver = Normal
Matrix Compiler1: 4.56 KB object code size  3.0/2.5/[1.2]
Matrix Compiler2: 3.89 KB object code size  1.2/2.1/[1.0]


